/*--------------------------------*- C++ -*----------------------------------*\
| =========                 |                                                 |
| \\      /  F ield         | foam-extend: Open Source CFD                    |
|  \\    /   O peration     | Version:     4.0                                |
|   \\  /    A nd           | Web:         http://www.foam-extend.org         |
|    \\/     M anipulation  |                                                 |
\*---------------------------------------------------------------------------*/
FoamFile
{
    version     2.0;
    format      ascii;
    class       dictionary;
    location    "system";
    object      controlDict;
}
// * * * * * * * * * * * * * * * * * * * * * * * * * * * * * * * * * * * * * //

application     simpleFoam;

startFrom       startTime;

startTime       0;

stopAt          endTime;

endTime         25000;

deltaT          1;

writeControl    timeStep;

writeInterval   100;

purgeWrite      0;

writeFormat     ascii;

writePrecision  6;

writeCompression compressed;

timeFormat      general;

timePrecision   6;

runTimeModifiable yes;

functions
{
  
forces
{
    type                forces;
    functionObjectLibs  ("libforces.so");
    outputControl       timeStep;
    outputInterval      10;
     
    patches             ( "cylinder" );
    pName               p;
    UName               U;
    rho                 rhoInf;
 // rhoName             rhoInf; // OF-2.3.x
    log                 true; 
    CofR                (0 0 0);     
    rhoInf              1000;
}
 
 
forceCoeffs
{
    type                forceCoeffs;
    functionObjectLibs  ( "libforces.so" );
    outputControl       timeStep;
    outputInterval      10;
 
    patches             ( "cylinder" );
    pName               p;
    UName               U;
    rho                 rhoInf;
 // rhoName             rhoInf; // OF-2.3.x
    log                 true;
     
    liftDir             (0 1 0);
    dragDir             (1 0 0);
    CofR                (0 0 0);
    pitchAxis           (0 0 1);
     
    magUInf             0.25;
    rhoInf              1000;
    lRef                0.03;
    Aref                0.0003;
}

}

// * * * * * * * * * * * * * * * * * * * * * * * * * * * * * * * * * * * * * //
